LAMMPS (17 Nov 2015)
##—————INITIALIZATION——————————-
units real
dimension 3 #3D simmulation
boundary f p f
atom_style atomic
newton on
##—————ATOM DEFINITION——————————
read_data data.graphene
  orthogonal box = (-1.42 -1.22972 -2) to (42.6 24.5944 2)
  reading atoms ...
  400 atoms
##—————SETTINGS———————————
pair_style airebo 3.0
pair_coeff * * CH.airebo C
Reading potential file CH.airebo with DATE: 2011-10-25
timestep 0.0005
fix 1 all npt temp 300 300 0.05 y 0 0 0.5
thermo 20
compute 1 all stress/atom NULL
compute 2 all pe/atom pair bond
# compute 3 all reduce sum c 1[1] c 1[2] c 1[3]

# thermo style custom step temp pe ke etotal lx ly pxx pyy c 3[1] c 3[2] c 3[3]
##—————RUNING-RELAXATION————————————–
run 60000
  1 neighbor list requests
  update every 1 steps, delay 10 steps, check yes
Step Temp E_pair E_mol TotEng Press Volume
0            0   -2786.8353            0   -2786.8353   -4103.0646     4547.111
Averages over the last 1501 of 3001 rows, steps 30000 to 60000:
Temp E_pair E_mol TotEng Press Volume
299.262 -2154.43 0 -1798.5 28957.2 4413.06
Loop time of 263.669 on 1 procs for 60000 steps with 400 atoms

##—————RUNNING-DEFORMATION————————————–
unfix 1
fix 1 all nvt temp 300 300 0.05
fix 2 all ave/atom 1 1000 1000 c 1[1] c 1[2] c 1[3] c 2 fx fy fz
ERROR: Illegal fix ave/atom command (../fix_ave_atom.cpp:113)
