LAMMPS (17 Nov 2015)
units           real
atom_style      full
boundary        f f f
dielectric      1
special_bonds   lj/coul 0.0 0.0 1.0

pair_style      lj/charmm/coul/charmm 9 10.00000
bond_style      harmonic
angle_style     harmonic
dihedral_style  charmm
improper_style  none
kspace_style    none

read_data       data.tripeptide
  orthogonal box = (-1000 -1000 -1000) to (1000 1000 1000)
  reading atoms ...
  54 atoms
  scanning bonds ...
  scanning angles ...
  scanning dihedrals ...
  reading bonds ...
  54 bonds
  reading angles ...
  93 angles
  reading dihedrals ...
  134 dihedrals

pair_modify     mix geometric
neighbor        2.0 multi
neigh_modify    every 2 delay 4 check yes

timestep	1.0 # 1 fms - recommended

thermo		100 # every 100 steps
thermo_style 	custom step temp pe ke etotal press vol ebond eangle edihed eimp epair ecoul
thermo_modify	line one format float %14.6f
variable        input index in.tripeptide
variable        sname index tripeptide

dump		1 all xyz 100 tripeptide.min.xyz
dump_modify	1 element H C N O

min_style	cg
minimize	0.001 .01 4000 8000
  1 neighbor list requests
  update every 1 steps, delay 0 steps, check yes
Step Temp PotEng KinEng TotEng Press Volume E_bond E_angle E_dihed E_impro E_pair E_coul
0       0.000000      71.839196       0.000000      71.839196       0.002522 8000000000.000000       7.484108       6.311105       7.832160       0.000000      50.211823      -9.461408
Loop time of 0.00469589 on 1 procs for 32 steps with 54 atoms

Minimization stats:
  Stopping criterion = energy tolerance
  Energy initial, next-to-last, final =
  Force two-norm initial, final = 148.319 7.10402
  Force max component initial, final = 32.9245 2.58254
  Final line search alpha, max atom move = 0.012606 0.0325554
  Iterations, force evaluations = 32 64

reset_timestep	0
fix		1 all nvt temp 300.0 300.0 100.0
fix		2 all momentum 100 linear 1 1 1 angular
run 		10000
  1 neighbor list requests
  update every 2 steps, delay 4 steps, check yes
Step Temp PotEng KinEng TotEng Press Volume E_bond E_angle E_dihed E_impro E_pair E_coul
0       0.000000      46.335736       0.000000      46.335736      -0.000001 8000000000.000000       9.390229      17.044827       6.417422       0.000000      13.483258     -22.339765
Averages over the last 51 of 101 rows, steps 5000 to 10000:
Temp PotEng KinEng TotEng Press Volume E_bond E_angle E_dihed E_impro E_pair E_coul
302.921 42.5017 47.8564 90.3581 -1.52745e-05 8e+09 28.0327 46.5367 9.82189 0 -41.8895 -82.1325
Loop time of 3.71491 on 1 procs for 10000 steps with 54 atoms

Please see the log.cite file for references relevant to this simulation
